[TITLE]
;;Project Title/Notes

[OPTIONS]
;;Option             Value
FLOW_UNITS           CMS
INFILTRATION         HORTON
FLOW_ROUTING         KINWAVE
LINK_OFFSETS         DEPTH
MIN_SLOPE            0
ALLOW_PONDING        NO
SKIP_STEADY_STATE    NO

START_DATE           01/01/2018
START_TIME           00:00:00
REPORT_START_DATE    01/01/2018
REPORT_START_TIME    00:00:00
END_DATE             01/01/2018
END_TIME             02:00:00
SWEEP_START          01/01
SWEEP_END            12/31
DRY_DAYS             0
REPORT_STEP          00:01:00
WET_STEP             00:05:00
DRY_STEP             01:00:00
ROUTING_STEP         0:00:30 

INERTIAL_DAMPING     PARTIAL
NORMAL_FLOW_LIMITED  BOTH
FORCE_MAIN_EQUATION  H-W
VARIABLE_STEP        0.75
LENGTHENING_STEP     0
MIN_SURFAREA         1.14
MAX_TRIALS           8
HEAD_TOLERANCE       0.0015
SYS_FLOW_TOL         5
LAT_FLOW_TOL         5
MINIMUM_STEP         0.5
THREADS              1

[EVAPORATION]
;;Data Source    Parameters
;;-------------- ----------------
CONSTANT         0.0
DRY_ONLY         NO

[RAINGAGES]
;;Name           Format    Interval SCF      Source    
;;-------------- --------- ------ ------ ----------
RG1              INTENSITY 0:01     1.0      TIMESERIES 5mins           

[SUBCATCHMENTS]
;;Name           Rain Gage        Outlet           Area     %Imperv  Width    %Slope   CurbLen  SnowPack        
;;-------------- ---------------- ---------------- -------- -------- -------- -------- -------- ----------------
1                RG1              J1               1        25       100      0.5      0                        
2                RG1              J3               1        25       100      0.5      0                        
3                RG1              J3               1        25       100      0.5      0                        
4                RG1              J3               1        25       100      0.5      0                        
5                RG1              J4               1        25       100      0.5      0                        
6                RG1              J2               1        25       100      0.5      0                        
7                RG1              J2               1        25       100      0.5      0                        

[SUBAREAS]
;;Subcatchment   N-Imperv   N-Perv     S-Imperv   S-Perv     PctZero    RouteTo    PctRouted 
;;-------------- ---------- ---------- ---------- ---------- ---------- ---------- ----------
1                0.01       0.1        0.05       0.05       25         OUTLET    
2                0.01       0.1        0.05       0.05       25         OUTLET    
3                0.01       0.1        0.05       0.05       25         OUTLET    
4                0.01       0.1        0.05       0.05       25         OUTLET    
5                0.01       0.1        0.05       0.05       25         OUTLET    
6                0.01       0.1        0.05       0.05       25         OUTLET    
7                0.01       0.1        0.05       0.05       25         OUTLET    

[INFILTRATION]
;;Subcatchment   MaxRate    MinRate    Decay      DryTime    MaxInfil  
;;-------------- ---------- ---------- ---------- ---------- ----------
1                3.0        0.5        4          7          0         
2                3.0        0.5        4          7          0         
3                3.0        0.5        4          7          0         
4                3.0        0.5        4          7          0         
5                3.0        0.5        4          7          0         
6                3.0        0.5        4          7          0         
7                3.0        0.5        4          7          0         

[JUNCTIONS]
;;Name           Elevation  MaxDepth   InitDepth  SurDepth   Aponded   
;;-------------- ---------- ---------- ---------- ---------- ----------
J1               5          0          0          0          0         
J2               4.80       0          0          0          0         
J3               5          0          0          0          0         
J4               4.80       0          0          0          0         
J5               4.50       0          0          0          0         

[OUTFALLS]
;;Name           Elevation  Type       Stage Data       Gated    Route To        
;;-------------- ---------- ---------- ---------------- -------- ----------------
Out1             4.20       FREE                        NO                       

[CONDUITS]
;;Name           From Node        To Node          Length     Roughness  InOffset   OutOffset  InitFlow   MaxFlow   
;;-------------- ---------------- ---------------- ---------- ---------- ---------- ---------- ---------- ----------
8                J1               J4               200        0.01       0          0          0          0         
9                J3               J4               200        0.01       0          0          0          0         
10               J4               J5               200        0.01       0          0          0          0         
11               J2               J5               500        0.01       0          0          0          0         
12               J5               Out1             200        0.01       0          0          0          0         

[XSECTIONS]
;;Link           Shape        Geom1            Geom2      Geom3      Geom4      Barrels    Culvert   
;;-------------- ------------ ---------------- ---------- ---------- ---------- ---------- ----------
8                CIRCULAR     1                0          0          0          1                    
9                CIRCULAR     1                0          0          0          1                    
10               CIRCULAR     1                0          0          0          1                    
11               CIRCULAR     1                0          0          0          1                    
12               CIRCULAR     1                0          0          0          1                    

[TIMESERIES]
;;Name           Date       Time       Value     
;;-------------- ---------- ---------- ----------
5mins            01/01/2018 00:00      100       
5mins            01/01/2018 00:01      100       
5mins            01/01/2018 00:02      100       
5mins            01/01/2018 00:03      100       
5mins            01/01/2018 00:04      100       
5mins            01/01/2018 00:05      100       
;
7mins            01/01/2018 00:00      80        
7mins            01/01/2018 00:01      80        
7mins            01/01/2018 00:02      80        
7mins            01/01/2018 00:03      80        
7mins            01/01/2018 00:04      80        
7mins            01/01/2018 00:05      80        
7mins            01/01/2018 00:06      80        
7mins            01/01/2018 00:07      80        

[REPORT]
;;Reporting Options
INPUT      NO
CONTROLS   NO
SUBCATCHMENTS ALL
NODES ALL
LINKS ALL

[TAGS]

[MAP]
DIMENSIONS 0.000 0.000 10000.000 10000.000
Units      None

[COORDINATES]
;;Node           X-Coord            Y-Coord           
;;-------------- ------------------ ------------------
J1               377.907            6642.442          
J2               -3713.178          3054.264          
J3               5558.140           6294.574          
J4               1697.674           2945.736          
J5               -1883.721          1674.419          
Out1             -4643.411          899.225           

[VERTICES]
;;Link           X-Coord            Y-Coord           
;;-------------- ------------------ ------------------

[Polygons]
;;Subcatchment   X-Coord            Y-Coord           
;;-------------- ------------------ ------------------
1                -735.465           7194.767          
1                1023.256           7369.186          
1                950.581            8851.744          
1                -357.558           9186.047          
1                -1534.884          8023.256          
2                2726.986           5676.357          
2                4427.568           5676.357          
2                4427.568           8060.078          
2                2712.452           8060.078          
3                7345.203           9059.593          
3                7345.203           6661.337          
3                5717.297           6646.802          
3                5731.831           9074.128          
4                7231.105           3582.849          
4                7260.174           6024.709          
4                5559.593           5995.640          
4                5588.663           3582.849          
5                3966.085           3685.078          
5                4998.062           1272.287          
5                3966.085           850.775           
5                2788.760           1126.938          
5                2846.899           3685.078          
6                -2168.605          5014.535          
6                -482.558           4970.930          
6                -511.628           2674.419          
6                -2212.209          2718.023          
6                -2183.140          4854.651          
7                -3092.297          6122.820          
7                -2976.017          3680.959          
7                -4865.552          3637.355          
7                -4880.087          6035.610          

[SYMBOLS]
;;Gage           X-Coord            Y-Coord           
;;-------------- ------------------ ------------------
RG1              -3357.558          8284.884          

